Version 4
SHEET 1 880 680
TEXT -728 -56 Left 2 !;circuito practica 2\n;Vin  1  0   Pulse (0v,5v,0s,1ns,1ns,1ms,2ms)\nVin  1  0   AC 2.5\nR1   1  2  10K\nR2   2  3  3.3K\nR3   2  0  10K\nL1   3  0   6.77mH\n;.tran 100us   10ms\n.ac dec 10 10Hz 900KHz\n.end
